<?xml version="1.0" encoding="UTF-8"?>

<!-- generated on Tue Oct  1 12:19:45 2019 by Eclipse SUMO netconvert Version 1.3.1
<configuration xmlns:xsi="http://www.w3.org/2001/XMLSchema-instance" xsi:noNamespaceSchemaLocation="http://sumo.dlr.de/xsd/netconvertConfiguration.xsd">

    <input>
        <osm-files value="map.osm"/>
    </input>

    <output>
        <output-file value="mm.net.xml"/>
    </output>

    <projection>
        <proj.utm value="true"/>
    </projection>

</configuration>
-->

<net version="1.3" junctionCornerDetail="5" limitTurnSpeed="5.50" xmlns:xsi="http://www.w3.org/2001/XMLSchema-instance" xsi:noNamespaceSchemaLocation="http://sumo.dlr.de/xsd/net_file.xsd">

    <location netOffset="-438397.12,-4473255.75" convBoundary="0.00,0.00,4137.16,9756.89" origBoundary="-3.726936,40.407846,-3.677558,40.495544" projParameter="+proj=utm +zone=30 +ellps=WGS84 +datum=WGS84 +units=m +no_defs"/>

    <type id="highway.bridleway" priority="1" numLanes="1" speed="2.78" allow="pedestrian" oneway="1" width="2.00"/>
    <type id="highway.bus_guideway" priority="1" numLanes="1" speed="27.78" allow="bus" oneway="1"/>
    <type id="highway.cycleway" priority="1" numLanes="1" speed="8.33" allow="bicycle" oneway="0" width="1.00"/>
    <type id="highway.footway" priority="1" numLanes="1" speed="2.78" allow="pedestrian" oneway="1" width="2.00"/>
    <type id="highway.ford" priority="1" numLanes="1" speed="2.78" allow="army" oneway="0"/>
    <type id="highway.living_street" priority="2" numLanes="1" speed="2.78" disallow="tram rail_urban rail rail_electric rail_fast ship" oneway="0"/>
    <type id="highway.motorway" priority="14" numLanes="2" speed="39.44" allow="private emergency authority army vip passenger hov taxi bus coach delivery truck trailer motorcycle evehicle custom1 custom2" oneway="1"/>
    <type id="highway.motorway_link" priority="9" numLanes="1" speed="22.22" allow="private emergency authority army vip passenger hov taxi bus coach delivery truck trailer motorcycle evehicle custom1 custom2" oneway="1"/>
    <type id="highway.path" priority="1" numLanes="1" speed="2.78" allow="pedestrian bicycle" oneway="1" width="2.00"/>
    <type id="highway.pedestrian" priority="1" numLanes="1" speed="2.78" allow="pedestrian" oneway="1" width="2.00"/>
    <type id="highway.primary" priority="12" numLanes="2" speed="27.78" disallow="tram rail_urban rail rail_electric rail_fast ship" oneway="0"/>
    <type id="highway.primary_link" priority="7" numLanes="1" speed="22.22" disallow="tram rail_urban rail rail_electric rail_fast ship" oneway="0"/>
    <type id="highway.raceway" priority="15" numLanes="2" speed="83.33" allow="vip" oneway="0"/>
    <type id="highway.residential" priority="3" numLanes="1" speed="13.89" disallow="tram rail_urban rail rail_electric rail_fast ship" oneway="0"/>
    <type id="highway.secondary" priority="11" numLanes="2" speed="27.78" disallow="tram rail_urban rail rail_electric rail_fast ship" oneway="0"/>
    <type id="highway.secondary_link" priority="6" numLanes="1" speed="22.22" disallow="tram rail_urban rail rail_electric rail_fast ship" oneway="0"/>
    <type id="highway.service" priority="1" numLanes="1" speed="5.56" allow="pedestrian delivery bicycle" oneway="0"/>
    <type id="highway.stairs" priority="1" numLanes="1" speed="1.39" allow="pedestrian" oneway="1" width="2.00"/>
    <type id="highway.step" priority="1" numLanes="1" speed="1.39" allow="pedestrian" oneway="1" width="2.00"/>
    <type id="highway.steps" priority="1" numLanes="1" speed="1.39" allow="pedestrian" oneway="1" width="2.00"/>
    <type id="highway.tertiary" priority="10" numLanes="1" speed="22.22" disallow="tram rail_urban rail rail_electric rail_fast ship" oneway="0"/>
    <type id="highway.tertiary_link" priority="5" numLanes="1" speed="22.22" disallow="tram rail_urban rail rail_electric rail_fast ship" oneway="0"/>
    <type id="highway.track" priority="1" numLanes="1" speed="5.56" disallow="tram rail_urban rail rail_electric rail_fast ship" oneway="0"/>
    <type id="highway.trunk" priority="13" numLanes="2" speed="27.78" disallow="pedestrian bicycle tram rail_urban rail rail_electric rail_fast ship" oneway="0"/>
    <type id="highway.trunk_link" priority="8" numLanes="1" speed="22.22" disallow="pedestrian bicycle tram rail_urban rail rail_electric rail_fast ship" oneway="0"/>
    <type id="highway.unclassified" priority="4" numLanes="1" speed="13.89" disallow="tram rail_urban rail rail_electric rail_fast ship" oneway="0"/>
    <type id="highway.unsurfaced" priority="1" numLanes="1" speed="8.33" disallow="tram rail_urban rail rail_electric rail_fast ship" oneway="0"/>
    <type id="railway.highspeed" priority="21" numLanes="1" speed="69.44" allow="rail_fast" oneway="1"/>
    <type id="railway.light_rail" priority="19" numLanes="1" speed="27.78" allow="rail_urban" oneway="1"/>
    <type id="railway.preserved" priority="16" numLanes="1" speed="27.78" allow="rail" oneway="1"/>
    <type id="railway.rail" priority="20" numLanes="1" speed="44.44" allow="rail" oneway="1"/>
    <type id="railway.subway" priority="18" numLanes="1" speed="27.78" allow="rail_urban" oneway="1"/>
    <type id="railway.tram" priority="17" numLanes="1" speed="13.89" allow="tram" oneway="1"/>

    <edge id=":100890241_0" function="internal">
        <lane id=":100890241_0_0" index="0" disallow="tram rail_urban rail rail_electric rail_fast ship" speed="10.20" length="15.23" shape="3404.57,3320.77 3402.61,3319.33 3401.02,3316.38 3399.81,3311.92 3398.97,3305.94"/>
        <lane id=":100890241_0_1" index="1" disallow="tram rail_urban rail rail_electric rail_fast ship" speed="9.45" length="15.23" shape="3407.06,3318.20 3405.33,3316.96 3403.93,3314.45 3402.88,3310.68 3402.16,3305.63"/>
    </edge>
    <edge id=":100890241_2" function="internal">
        <lane id=":100890241_2_0" index="0" disallow="tram rail_urban rail rail_electric rail_fast ship" speed="6.43" length="9.03" shape="3387.50,3312.53 3389.93,3312.03 3391.60,3310.86 3392.49,3309.04 3392.60,3306.55"/>
    </edge>
    <edge id=":100890241_3" function="internal">
        <lane id=":100890241_3_0" index="0" disallow="tram rail_urban rail rail_electric rail_fast ship" speed="13.89" length="11.90" shape="3387.50,3312.53 3390.78,3312.92 3393.15,3313.88 3395.34,3314.34 3398.11,3313.24"/>
        <lane id=":100890241_3_1" index="1" disallow="tram rail_urban rail rail_electric rail_fast ship" speed="13.89" length="11.90" shape="3387.69,3315.72 3391.47,3316.07 3394.21,3316.94 3396.75,3317.24 3399.95,3315.86"/>
    </edge>
    <edge id=":100890241_5" function="internal">
        <lane id=":100890241_5_0" index="0" disallow="tram rail_urban rail rail_electric rail_fast ship" speed="13.89" length="15.81" shape="3397.60,3321.77 3397.62,3318.34 3397.16,3315.06 3396.45,3311.25 3395.79,3306.24"/>
        <lane id=":100890241_5_1" index="1" disallow="tram rail_urban rail rail_electric rail_fast ship" speed="13.89" length="15.81" shape="3397.60,3321.77 3398.12,3318.31 3398.75,3314.95 3399.15,3311.05 3398.97,3305.94"/>
    </edge>
    <edge id=":100890241_7" function="internal">
        <lane id=":100890241_7_0" index="0" disallow="tram rail_urban rail rail_electric rail_fast ship" speed="7.92" length="6.53" shape="3397.60,3321.77 3397.91,3319.67 3398.41,3317.98 3399.09,3316.71 3399.95,3315.86"/>
    </edge>
    <edge id=":100890242_0" function="internal">
        <lane id=":100890242_0_0" index="0" disallow="tram rail_urban rail rail_electric rail_fast ship" speed="13.89" length="17.42" shape="3464.19,3306.84 3481.60,3305.85"/>
        <lane id=":100890242_0_1" index="1" disallow="tram rail_urban rail rail_electric rail_fast ship" speed="13.89" length="17.42" shape="3464.42,3310.04 3481.79,3309.04"/>
    </edge>
    <edge id=":100890242_2" function="internal">
        <lane id=":100890242_2_0" index="0" disallow="tram rail_urban rail rail_electric rail_fast ship" speed="18.05" length="17.27" shape="3464.42,3310.04 3469.95,3310.06 3474.20,3310.87 3477.70,3312.22 3480.98,3313.85"/>
    </edge>
    <edge id=":100890243_0" function="internal">
        <lane id=":100890243_0_0" index="0" disallow="tram rail_urban rail rail_electric rail_fast ship" speed="6.53" length="8.93" shape="3488.41,3299.92 3488.93,3302.31 3490.08,3303.98 3491.87,3304.93 3494.28,3305.15"/>
    </edge>
    <edge id=":100890243_1" function="internal">
        <lane id=":100890243_1_0" index="0" disallow="tram rail_urban rail rail_electric rail_fast ship" speed="13.89" length="10.99" shape="3483.30,3305.75 3494.28,3305.15"/>
        <lane id=":100890243_1_1" index="1" disallow="tram rail_urban rail rail_electric rail_fast ship" speed="13.89" length="10.99" shape="3483.48,3308.94 3494.44,3308.35"/>
    </edge>
    <edge id=":100890244_0" function="internal">
        <lane id=":100890244_0_0" index="0" disallow="tram rail_urban rail rail_electric rail_fast ship" speed="6.48" length="9.03" shape="3569.10,3301.31 3571.54,3300.84 3573.22,3299.69 3574.16,3297.89 3574.35,3295.42"/>
    </edge>
    <edge id=":100890244_1" function="internal">
        <lane id=":100890244_1_0" index="0" disallow="tram rail_urban rail rail_electric rail_fast ship" speed="13.89" length="11.22" shape="3569.10,3301.31 3580.30,3300.71"/>
        <lane id=":100890244_1_1" index="1" disallow="tram rail_urban rail rail_electric rail_fast ship" speed="13.89" length="11.22" shape="3569.27,3304.51 3580.48,3303.90"/>
    </edge>
    <edge id=":100890246_0" function="internal">
        <lane id=":100890246_0_0" index="0" disallow="tram rail_urban rail rail_electric rail_fast ship" speed="6.43" length="9.03" shape="3672.98,3290.59 3673.51,3293.02 3674.70,3294.67 3676.53,3295.53 3679.02,3295.61"/>
    </edge>
    <edge id=":100890246_1" function="internal">
        <lane id=":100890246_1_0" index="0" disallow="tram rail_urban rail rail_electric rail_fast ship" speed="13.89" length="12.44" shape="3672.98,3290.59 3673.86,3303.02"/>
        <lane id=":100890246_1_1" index="1" disallow="tram rail_urban rail rail_electric rail_fast ship" speed="13.89" length="12.44" shape="3669.79,3290.82 3670.67,3303.24"/>
        <lane id=":100890246_1_2" index="2" disallow="tram rail_urban rail rail_electric rail_fast ship" speed="13.89" length="12.44" shape="3666.60,3291.05 3667.47,3303.45"/>
        <lane id=":100890246_1_3" index="3" disallow="tram rail_urban rail rail_electric rail_fast ship" speed="13.89" length="12.44" shape="3663.41,3291.28 3664.28,3303.67"/>
    </edge>
    <edge id=":100890246_5" function="internal">
        <lane id=":100890246_5_0" index="0" disallow="tram rail_urban rail rail_electric rail_fast ship" speed="13.89" length="21.17" shape="3657.96,3298.26 3679.02,3295.61"/>
        <lane id=":100890246_5_1" index="1" disallow="tram rail_urban rail rail_electric rail_fast ship" speed="13.89" length="21.17" shape="3658.41,3301.43 3679.37,3298.79"/>
    </edge>
    <edge id=":100890249_0" function="internal">
        <lane id=":100890249_0_0" index="0" disallow="tram rail_urban rail rail_electric rail_fast ship" speed="13.89" length="0.30" shape="4121.43,3259.69 4121.73,3259.67"/>
        <lane id=":100890249_0_1" index="1" disallow="tram rail_urban rail rail_electric rail_fast ship" speed="13.89" length="0.30" shape="4121.70,3262.88 4122.00,3262.86"/>
        <lane id=":100890249_0_2" index="2" disallow="tram rail_urban rail rail_electric rail_fast ship" speed="13.89" length="0.30" shape="4121.96,3266.07 4122.27,3266.05"/>
    </edge>
    <edge id=":100891147_0" function="internal">
        <lane id=":100891147_0_0" index="0" disallow="tram rail_urban rail rail_electric rail_fast ship" speed="6.49" length="9.07" shape="3894.12,3294.28 3891.66,3294.81 3889.97,3295.98 3889.05,3297.80 3888.90,3300.25"/>
    </edge>
    <edge id=":100891147_1" function="internal">
        <lane id=":100891147_1_0" index="0" disallow="tram rail_urban rail rail_electric rail_fast ship" speed="13.89" length="11.20" shape="3894.12,3294.28 3882.91,3295.05"/>
        <lane id=":100891147_1_1" index="1" disallow="tram rail_urban rail rail_electric rail_fast ship" speed="13.89" length="11.20" shape="3893.88,3291.09 3882.70,3291.86"/>
        <lane id=":100891147_1_2" index="2" disallow="tram rail_urban rail rail_electric rail_fast ship" speed="13.89" length="11.20" shape="3893.65,3287.90 3882.50,3288.67"/>
    </edge>
    <edge id=":100891147_4" function="internal">
        <lane id=":100891147_4_0" index="0" disallow="tram rail_urban rail rail_electric rail_fast ship" speed="13.89" length="14.63" shape="3887.89,3285.66 3888.90,3300.25"/>
    </edge>
    <edge id=":100891147_5" function="internal">
        <lane id=":100891147_5_0" index="0" disallow="tram rail_urban rail rail_electric rail_fast ship" speed="6.56" length="9.23" shape="3887.89,3285.66 3887.72,3288.23 3886.79,3290.13 3885.12,3291.34 3882.70,3291.86"/>
    </edge>
    <edge id=":100891147_6" function="internal">
        <lane id=":100891147_6_0" index="0" disallow="tram rail_urban rail rail_electric rail_fast ship" speed="5.74" length="6.81" shape="3887.89,3285.66 3887.62,3286.84 3886.63,3287.73 3884.92,3288.34 3882.50,3288.67"/>
    </edge>
    <edge id=":100891149_0" function="internal">
        <lane id=":100891149_0_0" index="0" disallow="tram rail_urban rail rail_electric rail_fast ship" speed="13.89" length="30.62" shape="3510.80,3323.66 3480.14,3325.24"/>
        <lane id=":100891149_0_1" index="1" disallow="tram rail_urban rail rail_electric rail_fast ship" speed="13.89" length="30.62" shape="3510.60,3320.46 3480.02,3322.04"/>
        <lane id=":100891149_0_2" index="2" disallow="tram rail_urban rail rail_electric rail_fast ship" speed="13.89" length="30.62" shape="3510.39,3317.27 3479.89,3318.84"/>
    </edge>
    <edge id=":100891149_3" function="internal">
        <lane id=":100891149_3_0" index="0" disallow="tram rail_urban rail rail_electric rail_fast ship" speed="22.22" length="31.85" shape="3481.11,3313.92 3486.24,3316.42 3493.80,3320.17 3502.03,3324.61 3509.19,3329.17"/>
        <lane id=":100891149_3_1" index="1" disallow="tram rail_urban rail rail_electric rail_fast ship" speed="22.22" length="31.85" shape="3481.11,3313.92 3485.95,3316.82 3492.85,3321.46 3500.43,3326.78 3507.30,3331.75"/>
    </edge>
    <edge id=":100891150_0" function="internal">
        <lane id=":100891150_0_0" index="0" disallow="tram rail_urban rail rail_electric rail_fast ship" speed="10.35" length="8.54" shape="3478.70,3329.09 3476.72,3327.46 3475.30,3326.25 3473.74,3325.56 3471.34,3325.50"/>
    </edge>
    <edge id=":100891150_1" function="internal">
        <lane id=":100891150_1_0" index="0" disallow="tram rail_urban rail rail_electric rail_fast ship" speed="17.41" length="8.95" shape="3478.70,3329.09 3476.64,3327.39 3475.25,3326.12 3473.72,3325.16 3471.23,3324.43"/>
    </edge>
    <edge id=":100891150_2" function="internal">
        <lane id=":100891150_2_0" index="0" disallow="tram rail_urban rail rail_electric rail_fast ship" speed="13.89" length="8.73" shape="3479.86,3325.25 3471.34,3325.50"/>
        <lane id=":100891150_2_1" index="1" disallow="tram rail_urban rail rail_electric rail_fast ship" speed="13.89" length="8.73" shape="3479.73,3322.05 3471.01,3322.31"/>
        <lane id=":100891150_2_2" index="2" disallow="tram rail_urban rail rail_electric rail_fast ship" speed="13.89" length="8.73" shape="3479.61,3318.85 3470.68,3319.13"/>
    </edge>
    <edge id=":100891150_5" function="internal">
        <lane id=":100891150_5_0" index="0" disallow="tram rail_urban rail rail_electric rail_fast ship" speed="18.05" length="9.19" shape="3479.61,3318.85 3476.97,3319.40 3475.21,3320.38 3473.48,3321.15 3470.89,3321.10"/>
    </edge>
    <edge id=":100891151_0" function="internal">
        <lane id=":100891151_0_0" index="0" disallow="tram rail_urban rail rail_electric rail_fast ship" speed="6.57" length="9.08" shape="3399.05,3336.57 3398.52,3334.17 3397.33,3332.50 3395.48,3331.56 3392.98,3331.35"/>
    </edge>
    <edge id=":100891151_1" function="internal">
        <lane id=":100891151_1_0" index="0" disallow="tram rail_urban rail rail_electric rail_fast ship" speed="13.89" length="14.70" shape="3399.05,3336.57 3398.59,3332.88 3397.99,3329.27 3397.55,3325.65 3397.58,3321.97"/>
    </edge>
    <edge id=":100891151_2" function="internal">
        <lane id=":100891151_2_0" index="0" disallow="tram rail_urban rail rail_electric rail_fast ship" speed="13.89" length="11.17" shape="3404.16,3330.70 3392.98,3331.35"/>
        <lane id=":100891151_2_1" index="1" disallow="tram rail_urban rail rail_electric rail_fast ship" speed="13.89" length="11.17" shape="3403.96,3327.51 3392.81,3328.15"/>
        <lane id=":100891151_2_2" index="2" disallow="tram rail_urban rail rail_electric rail_fast ship" speed="13.89" length="11.17" shape="3403.76,3324.32 3392.64,3324.96"/>
    </edge>
    <edge id=":100892261_0" function="internal">
        <lane id=":100892261_0_0" index="0" disallow="tram rail_urban rail rail_electric rail_fast ship" speed="13.89" length="0.20" shape="3619.44,3304.27 3619.54,3304.26"/>
        <lane id=":100892261_0_1" index="1" disallow="tram rail_urban rail rail_electric rail_fast ship" speed="13.89" length="0.20" shape="3619.69,3307.46 3619.99,3307.43"/>
    </edge>
    <edge id=":143489504_0" function="internal">
        <lane id=":143489504_0_0" index="0" disallow="tram rail_urban rail rail_electric rail_fast ship" speed="13.89" length="0.71" shape="3853.48,3440.11 3853.29,3440.20 3853.15,3440.24 3853.00,3440.25 3852.79,3440.25"/>
    </edge>
    <edge id=":143497066_0" function="internal">
        <lane id=":143497066_0_0" index="0" disallow="tram rail_urban rail rail_electric rail_fast ship" speed="13.89" length="0.10" shape="3553.63,3008.39 3553.63,3008.39"/>
    </edge>
    <edge id=":143497929_0" function="internal">
        <lane id=":143497929_0_0" index="0" disallow="tram rail_urban rail rail_electric rail_fast ship" speed="13.89" length="0.30" shape="3467.59,3014.40 3467.61,3014.70"/>
    </edge>
    <edge id=":143502015_0" function="internal">
        <lane id=":143502015_0_0" index="0" allow="pedestrian delivery bicycle" speed="3.65" length="4.67" shape="3709.97,3338.09 3710.68,3336.83 3711.44,3336.37 3712.27,3336.71 3713.16,3337.84"/>
    </edge>
    <edge id=":143504242_0" function="internal">
        <lane id=":143504242_0_0" index="0" disallow="tram rail_urban rail rail_electric rail_fast ship" speed="13.89" length="0.10" shape="3760.33,2994.45 3760.33,2994.45"/>
    </edge>
    <edge id=":1474148380_0" function="internal">
        <lane id=":1474148380_0_0" index="0" disallow="tram rail_urban rail rail_electric rail_fast ship" speed="5.93" length="7.36" shape="3576.54,3322.83 3576.10,3321.36 3574.99,3320.36 3573.20,3319.83 3570.74,3319.78"/>
    </edge>
    <edge id=":1474148380_1" function="internal">
        <lane id=":1474148380_1_0" index="0" disallow="tram rail_urban rail rail_electric rail_fast ship" speed="13.89" length="11.19" shape="3581.92,3319.04 3570.74,3319.78"/>
        <lane id=":1474148380_1_1" index="1" disallow="tram rail_urban rail rail_electric rail_fast ship" speed="13.89" length="11.19" shape="3581.70,3315.85 3570.54,3316.58"/>
        <lane id=":1474148380_1_2" index="2" disallow="tram rail_urban rail rail_electric rail_fast ship" speed="13.89" length="11.19" shape="3581.49,3312.66 3570.33,3313.39"/>
    </edge>
    <edge id=":1474148381_0" function="internal">
        <lane id=":1474148381_0_0" index="0" disallow="tram rail_urban rail rail_electric rail_fast ship" speed="5.75" length="10.42" shape="3572.78,3375.71 3575.96,3377.61 3578.16,3377.96 3579.40,3376.76 3579.67,3374.00"/>
    </edge>
    <edge id=":1474148381_1" function="internal">
        <lane id=":1474148381_1_0" index="0" disallow="tram rail_urban rail rail_electric rail_fast ship" speed="22.22" length="11.24" shape="3572.78,3375.71 3581.87,3382.30"/>
        <lane id=":1474148381_1_1" index="1" disallow="tram rail_urban rail rail_electric rail_fast ship" speed="22.22" length="11.24" shape="3570.89,3378.29 3580.00,3384.90"/>
    </edge>
    <edge id=":1505106061_0" function="internal">
        <lane id=":1505106061_0_0" index="0" disallow="tram rail_urban rail rail_electric rail_fast ship" speed="13.89" length="0.30" shape="3990.46,2996.13 3990.48,2996.43"/>
        <lane id=":1505106061_0_1" index="1" disallow="tram rail_urban rail rail_electric rail_fast ship" speed="13.89" length="0.30" shape="3987.27,2996.38 3987.29,2996.66"/>
    </edge>
    <edge id=":1505106062_0" function="internal">
        <lane id=":1505106062_0_0" index="0" disallow="tram rail_urban rail rail_electric rail_fast ship" speed="13.89" length="0.30" shape="3975.28,2996.71 3975.26,2996.43"/>
        <lane id=":1505106062_0_1" index="1" disallow="tram rail_urban rail rail_electric rail_fast ship" speed="13.89" length="0.30" shape="3978.47,2996.51 3978.45,2996.21"/>
        <lane id=":1505106062_0_2" index="2" disallow="tram rail_urban rail rail_electric rail_fast ship" speed="13.89" length="0.30" shape="3981.67,2996.30 3981.65,2995.99"/>
    </edge>
    <edge id=":1505106065_0" function="internal">
        <lane id=":1505106065_0_0" index="0" disallow="tram rail_urban rail rail_electric rail_fast ship" speed="13.89" length="0.28" shape="3997.73,3097.16 3997.75,3097.41"/>
        <lane id=":1505106065_0_1" index="1" disallow="tram rail_urban rail rail_electric rail_fast ship" speed="13.89" length="0.28" shape="3994.54,3097.39 3994.57,3097.70"/>
    </edge>
    <edge id=":1505106070_0" function="internal">
        <lane id=":1505106070_0_0" index="0" disallow="tram rail_urban rail rail_electric rail_fast ship" speed="13.89" length="0.29" shape="3999.70,3124.52 3999.72,3124.78"/>
        <lane id=":1505106070_0_1" index="1" disallow="tram rail_urban rail rail_electric rail_fast ship" speed="13.89" length="0.29" shape="3996.51,3124.70 3996.53,3125.01"/>
    </edge>
    <edge id=":1505106071_0" function="internal">
        <lane id=":1505106071_0_0" index="0" disallow="tram rail_urban rail rail_electric rail_fast ship" speed="13.89" length="0.30" shape="3983.72,3125.89 3983.70,3125.59"/>
        <lane id=":1505106071_0_1" index="1" disallow="tram rail_urban rail rail_electric rail_fast ship" speed="13.89" length="0.30" shape="3986.92,3125.65 3986.89,3125.36"/>
        <lane id=":1505106071_0_2" index="2" disallow="tram rail_urban rail rail_electric rail_fast ship" speed="13.89" length="0.30" shape="3990.11,3125.42 3990.09,3125.12"/>
    </edge>
    <edge id=":1505106087_0" function="internal">
        <lane id=":1505106087_0_0" index="0" disallow="tram rail_urban rail rail_electric rail_fast ship" speed="13.89" length="5.31" shape="4009.21,3256.65 4009.60,3261.94"/>
        <lane id=":1505106087_0_1" index="1" disallow="tram rail_urban rail rail_electric rail_fast ship" speed="13.89" length="5.31" shape="4006.02,3256.88 4006.41,3262.19"/>
    </edge>
    <edge id=":1505106088_0" function="internal">
        <lane id=":1505106088_0_0" index="0" disallow="tram rail_urban rail rail_electric rail_fast ship" speed="13.89" length="5.01" shape="3993.70,3262.65 3993.34,3257.66"/>
        <lane id=":1505106088_0_1" index="1" disallow="tram rail_urban rail rail_electric rail_fast ship" speed="13.89" length="5.01" shape="3996.89,3262.42 3996.53,3257.43"/>
        <lane id=":1505106088_0_2" index="2" disallow="tram rail_urban rail rail_electric rail_fast ship" speed="13.89" length="5.01" shape="4000.08,3262.19 3999.72,3257.20"/>
    </edge>
    <edge id=":1505106093_0" function="internal">
        <lane id=":1505106093_0_0" index="0" disallow="tram rail_urban rail rail_electric rail_fast ship" speed="13.89" length="3.00" shape="4023.60,3267.84 4026.59,3267.59"/>
        <lane id=":1505106093_0_1" index="1" disallow="tram rail_urban rail rail_electric rail_fast ship" speed="13.89" length="3.00" shape="4023.87,3271.03 4026.86,3270.78"/>
        <lane id=":1505106093_0_2" index="2" disallow="tram rail_urban rail rail_electric rail_fast ship" speed="13.89" length="3.00" shape="4024.13,3274.22 4027.12,3273.97"/>
    </edge>
    <edge id=":1505106096_0" function="internal">
        <lane id=":1505106096_0_0" index="0" disallow="tram rail_urban rail rail_electric rail_fast ship" speed="13.89" length="5.03" shape="3980.34,3272.66 3985.35,3272.29"/>
        <lane id=":1505106096_0_1" index="1" disallow="tram rail_urban rail rail_electric rail_fast ship" speed="13.89" length="5.03" shape="3980.57,3275.86 3985.59,3275.48"/>
    </edge>
    <edge id=":1505106098_0" function="internal">
        <lane id=":1505106098_0_0" index="0" disallow="tram rail_urban rail rail_electric rail_fast ship" speed="13.89" length="0.37" shape="4106.72,3278.41 4106.60,3278.42"/>
        <lane id=":1505106098_0_1" index="1" disallow="tram rail_urban rail rail_electric rail_fast ship" speed="13.89" length="0.37" shape="4106.71,3275.21 4106.35,3275.23"/>
        <lane id=":1505106098_0_2" index="2" disallow="tram rail_urban rail rail_electric rail_fast ship" speed="13.89" length="0.37" shape="4106.70,3272.01 4106.09,3272.04"/>
    </edge>
    <edge id=":1505106101_0" function="internal">
        <lane id=":1505106101_0_0" index="0" disallow="tram rail_urban rail rail_electric rail_fast ship" speed="13.89" length="3.00" shape="4027.75,3284.69 4024.69,3284.91"/>
        <lane id=":1505106101_0_1" index="1" disallow="tram rail_urban rail rail_electric rail_fast ship" speed="13.89" length="3.00" shape="4027.50,3281.50 4024.51,3281.71"/>
        <lane id=":1505106101_0_2" index="2" disallow="tram rail_urban rail rail_electric rail_fast ship" speed="13.89" length="3.00" shape="4027.24,3278.31 4024.32,3278.52"/>
    </edge>
    <edge id=":1505106104_0" function="internal">
        <lane id=":1505106104_0_0" index="0" disallow="tram rail_urban rail rail_electric rail_fast ship" speed="6.47" length="9.03" shape="4018.49,3285.27 4016.06,3285.76 4014.38,3286.92 4013.46,3288.73 4013.29,3291.21"/>
    </edge>
    <edge id=":1505106104_1" function="internal">
        <lane id=":1505106104_1_0" index="0" disallow="tram rail_urban rail rail_electric rail_fast ship" speed="13.89" length="14.08" shape="4018.49,3285.27 4004.44,3286.10"/>
        <lane id=":1505106104_1_1" index="1" disallow="tram rail_urban rail rail_electric rail_fast ship" speed="13.89" length="14.08" shape="4018.30,3282.08 4004.25,3282.91"/>
        <lane id=":1505106104_1_2" index="2" disallow="tram rail_urban rail rail_electric rail_fast ship" speed="13.89" length="14.08" shape="4018.11,3278.88 4004.05,3279.71"/>
    </edge>
    <edge id=":1505106104_4" function="internal">
        <lane id=":1505106104_4_0" index="0" disallow="tram rail_urban rail rail_electric rail_fast ship" speed="13.89" length="14.07" shape="4010.72,3277.44 4010.73,3281.60 4010.38,3284.45 4010.04,3287.30 4010.10,3291.45"/>
        <lane id=":1505106104_4_1" index="1" disallow="tram rail_urban rail rail_electric rail_fast ship" speed="13.89" length="14.07" shape="4007.53,3277.64 4007.54,3281.81 4007.18,3284.67 4006.85,3287.52 4006.91,3291.69"/>
    </edge>
    <edge id=":1505106106_0" function="internal">
        <lane id=":1505106106_0_0" index="0" disallow="tram rail_urban rail rail_electric rail_fast ship" speed="13.89" length="4.95" shape="3986.52,3287.47 3981.55,3287.86"/>
        <lane id=":1505106106_0_1" index="1" disallow="tram rail_urban rail rail_electric rail_fast ship" speed="13.89" length="4.95" shape="3986.25,3284.28 3981.32,3284.67"/>
        <lane id=":1505106106_0_2" index="2" disallow="tram rail_urban rail rail_electric rail_fast ship" speed="13.89" length="4.95" shape="3985.99,3281.09 3981.09,3281.48"/>
    </edge>
    <edge id=":1505106110_0" function="internal">
        <lane id=":1505106110_0_0" index="0" disallow="tram rail_urban rail rail_electric rail_fast ship" speed="13.89" length="5.04" shape="4013.43,3293.09 4013.83,3298.09"/>
        <lane id=":1505106110_0_1" index="1" disallow="tram rail_urban rail rail_electric rail_fast ship" speed="13.89" length="5.04" shape="4010.24,3293.33 4010.64,3298.36"/>
        <lane id=":1505106110_0_2" index="2" disallow="tram rail_urban rail rail_electric rail_fast ship" speed="13.89" length="5.04" shape="4007.05,3293.57 4007.45,3298.62"/>
    </edge>
    <edge id=":1505106117_0" function="internal">
        <lane id=":1505106117_0_0" index="0" disallow="tram rail_urban rail rail_electric rail_fast ship" speed="13.89" length="5.04" shape="3996.90,3300.28 3996.49,3295.28"/>
        <lane id=":1505106117_0_1" index="1" disallow="tram rail_urban rail rail_electric rail_fast ship" speed="13.89" length="5.04" shape="4000.09,3300.04 3999.68,3295.01"/>
        <lane id=":1505106117_0_2" index="2" disallow="tram rail_urban rail rail_electric rail_fast ship" speed="13.89" length="5.04" shape="4003.28,3299.79 4002.87,3294.74"/>
    </edge>
    <edge id=":1555729975_0" function="internal">
        <lane id=":1555729975_0_0" index="0" disallow="tram rail_urban rail rail_electric rail_fast ship" speed="3.84" length="3.37" shape="3399.85,3308.89 3400.02,3309.85 3400.44,3310.50 3401.10,3310.83 3401.99,3310.85"/>
    </edge>
    <edge id=":1555729975_1" function="internal">
        <lane id=":1555729975_1_0" index="0" disallow="tram rail_urban rail rail_electric rail_fast ship" speed="10.74" length="3.33" shape="3398.28,3313.13 3399.31,3312.50 3400.08,3312.21 3400.92,3312.08 3402.14,3311.94"/>
        <lane id=":1555729975_1_1" index="1" disallow="tram rail_urban rail rail_electric rail_fast ship" speed="8.59" length="3.33" shape="3400.12,3315.75 3400.76,3315.38 3401.26,3315.23 3401.79,3315.18 3402.55,3315.12"/>
    </edge>
    <edge id=":1759501519_0" function="internal">
        <lane id=":1759501519_0_0" index="0" disallow="tram rail_urban rail rail_electric rail_fast ship" speed="13.89" length="0.30" shape="3082.49,3330.22 3082.79,3330.20"/>