<edges>
    <edge from="n1" to="n2" id="1to2" type="2L15"/>
    <edge from="n2" to="n1" id="2to1" type="2L15"/>
    <edge from="n1" to="n3" id="1to3" type="2L15"/>
    <edge from="n3" to="n1" id="3to1" type="2L15"/>
    <edge from="n1" to="n4" id="1to4" type="2L15"/>
    <edge from="n4" to="n1" id="4to1" type="2L15"/>
    <edge from="n1" to="n5" id="1to5" type="2L15"/>
    <edge from="n5" to="n1" id="5to1" type="2L15"/>
</edges>