<configuration>

<input>
<net-file value="simple.net.xml"/>
<route-files value="trips.trips.xml"/>
</input> <time> <begin value="0"/>
<end value="2000"/>
</time>
</configuration>