<configuration>

<input>
<net-file value="simple.net.xml"/>
<route-files value="trips.trips.xml"/>
</input> 
<output>
   <!-- <netstate-dump value="output.xml" /> -->
   <tripinfo-output value="output/tripinfo.xml"/>
</output>


<time> <begin value="0"/>
<end value="2000"/>
</time>
</configuration>