<?xml version="1.0" encoding="UTF-8"?>

<!-- generated on Tue Oct  1 12:14:48 2019 by Eclipse SUMO netconvert Version 1.3.1
<configuration xmlns:xsi="http://www.w3.org/2001/XMLSchema-instance" xsi:noNamespaceSchemaLocation="http://sumo.dlr.de/xsd/netconvertConfiguration.xsd">

    <input>
        <osm-files value="map.osm"/>
    </input>

    <output>
        <output-file value="cibeles.net.xml"/>
    </output>

    <projection>
        <proj.utm value="true"/>
    </projection>

</configuration>
-->

<net version="1.3" junctionCornerDetail="5" limitTurnSpeed="5.50" xmlns:xsi="http://www.w3.org/2001/XMLSchema-instance" xsi:noNamespaceSchemaLocation="http://sumo.dlr.de/xsd/net_file.xsd">

    <location netOffset="-440410.79,-4473161.46" convBoundary="0.00,0.00,1764.44,3910.55" origBoundary="-3.702385,40.407012,-3.681637,40.442226" projParameter="+proj=utm +zone=30 +ellps=WGS84 +datum=WGS84 +units=m +no_defs"/>

    <type id="highway.bridleway" priority="1" numLanes="1" speed="2.78" allow="pedestrian" oneway="1" width="2.00"/>
    <type id="highway.bus_guideway" priority="1" numLanes="1" speed="27.78" allow="bus" oneway="1"/>
    <type id="highway.cycleway" priority="1" numLanes="1" speed="8.33" allow="bicycle" oneway="0" width="1.00"/>
    <type id="highway.footway" priority="1" numLanes="1" speed="2.78" allow="pedestrian" oneway="1" width="2.00"/>
    <type id="highway.ford" priority="1" numLanes="1" speed="2.78" allow="army" oneway="0"/>
    <type id="highway.living_street" priority="2" numLanes="1" speed="2.78" disallow="tram rail_urban rail rail_electric rail_fast ship" oneway="0"/>
    <type id="highway.motorway" priority="14" numLanes="2" speed="39.44" allow="private emergency authority army vip passenger hov taxi bus coach delivery truck trailer motorcycle evehicle custom1 custom2" oneway="1"/>
    <type id="highway.motorway_link" priority="9" numLanes="1" speed="22.22" allow="private emergency authority army vip passenger hov taxi bus coach delivery truck trailer motorcycle evehicle custom1 custom2" oneway="1"/>
    <type id="highway.path" priority="1" numLanes="1" speed="2.78" allow="pedestrian bicycle" oneway="1" width="2.00"/>
    <type id="highway.pedestrian" priority="1" numLanes="1" speed="2.78" allow="pedestrian" oneway="1" width="2.00"/>
    <type id="highway.primary" priority="12" numLanes="2" speed="27.78" disallow="tram rail_urban rail rail_electric rail_fast ship" oneway="0"/>
    <type id="highway.primary_link" priority="7" numLanes="1" speed="22.22" disallow="tram rail_urban rail rail_electric rail_fast ship" oneway="0"/>
    <type id="highway.raceway" priority="15" numLanes="2" speed="83.33" allow="vip" oneway="0"/>
    <type id="highway.residential" priority="3" numLanes="1" speed="13.89" disallow="tram rail_urban rail rail_electric rail_fast ship" oneway="0"/>
    <type id="highway.secondary" priority="11" numLanes="2" speed="27.78" disallow="tram rail_urban rail rail_electric rail_fast ship" oneway="0"/>
    <type id="highway.secondary_link" priority="6" numLanes="1" speed="22.22" disallow="tram rail_urban rail rail_electric rail_fast ship" oneway="0"/>
    <type id="highway.service" priority="1" numLanes="1" speed="5.56" allow="pedestrian delivery bicycle" oneway="0"/>
    <type id="highway.stairs" priority="1" numLanes="1" speed="1.39" allow="pedestrian" oneway="1" width="2.00"/>
    <type id="highway.step" priority="1" numLanes="1" speed="1.39" allow="pedestrian" oneway="1" width="2.00"/>
    <type id="highway.steps" priority="1" numLanes="1" speed="1.39" allow="pedestrian" oneway="1" width="2.00"/>
    <type id="highway.tertiary" priority="10" numLanes="1" speed="22.22" disallow="tram rail_urban rail rail_electric rail_fast ship" oneway="0"/>
    <type id="highway.tertiary_link" priority="5" numLanes="1" speed="22.22" disallow="tram rail_urban rail rail_electric rail_fast ship" oneway="0"/>
    <type id="highway.track" priority="1" numLanes="1" speed="5.56" disallow="tram rail_urban rail rail_electric rail_fast ship" oneway="0"/>
    <type id="highway.trunk" priority="13" numLanes="2" speed="27.78" disallow="pedestrian bicycle tram rail_urban rail rail_electric rail_fast ship" oneway="0"/>
    <type id="highway.trunk_link" priority="8" numLanes="1" speed="22.22" disallow="pedestrian bicycle tram rail_urban rail rail_electric rail_fast ship" oneway="0"/>
    <type id="highway.unclassified" priority="4" numLanes="1" speed="13.89" disallow="tram rail_urban rail rail_electric rail_fast ship" oneway="0"/>
    <type id="highway.unsurfaced" priority="1" numLanes="1" speed="8.33" disallow="tram rail_urban rail rail_electric rail_fast ship" oneway="0"/>
    <type id="railway.highspeed" priority="21" numLanes="1" speed="69.44" allow="rail_fast" oneway="1"/>
    <type id="railway.light_rail" priority="19" numLanes="1" speed="27.78" allow="rail_urban" oneway="1"/>
    <type id="railway.preserved" priority="16" numLanes="1" speed="27.78" allow="rail" oneway="1"/>
    <type id="railway.rail" priority="20" numLanes="1" speed="44.44" allow="rail" oneway="1"/>
    <type id="railway.subway" priority="18" numLanes="1" speed="27.78" allow="rail_urban" oneway="1"/>
    <type id="railway.tram" priority="17" numLanes="1" speed="13.89" allow="tram" oneway="1"/>

    <edge id=":1074577429_0" function="internal">
        <lane id=":1074577429_0_0" index="0" disallow="tram rail_urban rail rail_electric rail_fast ship" speed="13.89" length="0.42" shape="746.24,1362.13 745.82,1361.52"/>
        <lane id=":1074577429_0_1" index="1" disallow="tram rail_urban rail rail_electric rail_fast ship" speed="13.89" length="0.42" shape="748.83,1360.25 748.51,1359.78"/>
        <lane id=":1074577429_0_2" index="2" disallow="tram rail_urban rail rail_electric rail_fast ship" speed="13.89" length="0.42" shape="751.43,1358.38 751.19,1358.04"/>
        <lane id=":1074577429_0_3" index="3" disallow="tram rail_urban rail rail_electric rail_fast ship" speed="13.89" length="0.42" shape="754.02,1356.50 753.88,1356.30"/>
        <lane id=":1074577429_0_4" index="4" disallow="tram rail_urban rail rail_electric rail_fast ship" speed="13.89" length="0.42" shape="756.61,1354.63 756.56,1354.56"/>
    </edge>
    <edge id=":1074577438_0" function="internal">
        <lane id=":1074577438_0_0" index="0" disallow="tram rail_urban rail rail_electric rail_fast ship" speed="13.89" length="1.27" shape="794.43,1336.03 795.20,1336.08 795.73,1336.13 796.26,1336.22 797.01,1336.40"/>
        <lane id=":1074577438_0_1" index="1" disallow="tram rail_urban rail rail_electric rail_fast ship" speed="13.89" length="1.27" shape="794.20,1339.22 794.81,1339.26 795.22,1339.29 795.63,1339.36 796.23,1339.50"/>
        <lane id=":1074577438_0_2" index="2" disallow="tram rail_urban rail rail_electric rail_fast ship" speed="13.89" length="1.27" shape="793.98,1342.42 794.42,1342.44 794.72,1342.46 795.01,1342.50 795.44,1342.60"/>
        <lane id=":1074577438_0_3" index="3" disallow="tram rail_urban rail rail_electric rail_fast ship" speed="13.89" length="1.27" shape="793.76,1345.61 794.02,1345.62 794.21,1345.63 794.39,1345.65 794.65,1345.70"/>
        <lane id=":1074577438_0_4" index="4" disallow="tram rail_urban rail rail_electric rail_fast ship" speed="13.89" length="1.27" shape="793.53,1348.80 793.63,1348.80 793.70,1348.79 793.77,1348.79 793.87,1348.81"/>
        <lane id=":1074577438_0_5" index="5" disallow="tram rail_urban rail rail_electric rail_fast ship" speed="13.89" length="1.27" shape="793.31,1351.99 793.08,1351.91"/>
    </edge>
    <edge id=":1074577441_0" function="internal">
        <lane id=":1074577441_0_0" index="0" disallow="tram rail_urban rail rail_electric rail_fast ship" speed="13.89" length="17.48" shape="742.66,1356.64 740.53,1352.04 739.96,1348.43 739.24,1344.91 736.68,1340.62"/>
        <lane id=":1074577441_0_1" index="1" disallow="tram rail_urban rail rail_electric rail_fast ship" speed="13.89" length="17.48" shape="745.35,1354.90 743.16,1350.22 742.55,1346.54 741.79,1342.97 739.16,1338.60"/>
    </edge>
    <edge id=":1074577441_2" function="internal">
        <lane id=":1074577441_2_0" index="0" disallow="tram rail_urban rail rail_electric rail_fast ship" speed="5.71" length="8.75" shape="748.04,1353.16 746.23,1350.05 745.36,1347.76 745.43,1346.27 746.43,1345.60"/>
    </edge>
    <edge id=":1074577441_3" function="internal">
        <lane id=":1074577441_3_0" index="0" disallow="tram rail_urban rail rail_electric rail_fast ship" speed="4.47" length="4.83" shape="750.72,1351.43 749.76,1350.14 748.82,1349.26 747.90,1348.80 747.00,1348.75"/>
    </edge>
    <edge id=":1074577441_4" function="internal">
        <lane id=":1074577441_4_0" index="0" disallow="tram rail_urban rail rail_electric rail_fast ship" speed="5.05" length="6.56" shape="753.41,1349.69 753.30,1350.22 752.29,1350.76 750.37,1351.33 747.56,1351.90"/>
    </edge>
    <edge id=":1074577441_5" function="internal">
        <lane id=":1074577441_5_0" index="0" disallow="tram rail_urban rail rail_electric rail_fast ship" speed="5.85" length="9.26" shape="753.41,1349.69 754.04,1351.51 753.37,1353.01 751.40,1354.19 748.12,1355.05"/>
    </edge>
    <edge id=":1074577441_6" function="internal">
        <lane id=":1074577441_6_0" index="0" disallow="tram rail_urban rail rail_electric rail_fast ship" speed="3.65" length="3.18" shape="736.92,1343.02 737.53,1342.85 737.70,1342.39 737.41,1341.65 736.68,1340.62"/>
    </edge>
    <edge id=":1074577441_7" function="internal">
        <lane id=":1074577441_7_0" index="0" disallow="tram rail_urban rail rail_electric rail_fast ship" speed="13.89" length="10.06" shape="736.92,1343.02 739.53,1342.49 741.14,1341.41 742.74,1340.20 745.31,1339.30"/>
        <lane id=":1074577441_7_1" index="1" disallow="tram rail_urban rail rail_electric rail_fast ship" speed="13.89" length="10.06" shape="737.02,1346.22 739.77,1345.68 741.47,1344.60 743.17,1343.38 745.87,1342.45"/>
        <lane id=":1074577441_7_2" index="2" disallow="tram rail_urban rail rail_electric rail_fast ship" speed="13.89" length="10.06" shape="737.12,1349.42 740.00,1348.88 741.81,1347.78 743.60,1346.55 746.43,1345.60"/>
        <lane id=":1074577441_7_3" index="3" disallow="tram rail_urban rail rail_electric rail_fast ship" speed="13.89" length="10.06" shape="737.22,1352.61 740.24,1352.07 742.14,1350.97 744.03,1349.72 747.00,1348.75"/>
        <lane id=":1074577441_7_4" index="4" disallow="tram rail_urban rail rail_electric rail_fast ship" speed="13.89" length="10.06" shape="737.22,1352.61 740.31,1352.56 742.42,1352.54 744.52,1352.37 747.56,1351.90"/>
    </edge>
    <edge id=":1074577473_0" function="internal">
        <lane id=":1074577473_0_0" index="0" disallow="tram rail_urban rail rail_electric rail_fast ship" speed="13.89" length="7.46" shape="803.24,1401.31 795.73,1401.17"/>
        <lane id=":1074577473_0_1" index="1" disallow="tram rail_urban rail rail_electric rail_fast ship" speed="13.89" length="7.46" shape="803.31,1398.11 795.82,1397.97"/>
        <lane id=":1074577473_0_2" index="2" disallow="tram rail_urban rail rail_electric rail_fast ship" speed="13.89" length="7.46" shape="803.39,1394.91 795.92,1394.77"/>
        <lane id=":1074577473_0_3" index="3" disallow="tram rail_urban rail rail_electric rail_fast ship" speed="13.89" length="7.46" shape="803.46,1391.71 796.02,1391.58"/>
        <lane id=":1074577473_0_4" index="4" disallow="tram rail_urban rail rail_electric rail_fast ship" speed="13.89" length="7.46" shape="803.53,1388.51 796.12,1388.38"/>
    </edge>
    <edge id=":1074577473_5" function="internal">
        <lane id=":1074577473_5_0" index="0" disallow="tram rail_urban rail rail_electric rail_fast ship" speed="11.75" length="13.29" shape="801.98,1384.72 797.81,1389.07 795.42,1392.20 794.79,1394.10 795.92,1394.77"/>
    </edge>
    <edge id=":1074577473_6" function="internal">
        <lane id=":1074577473_6_0" index="0" disallow="tram rail_urban rail rail_electric rail_fast ship" speed="9.81" length="9.12" shape="801.98,1384.72 800.89,1386.09 799.11,1388.42 797.27,1390.62 796.02,1391.58"/>
    </edge>
    <edge id=":1074577473_7" function="internal">
        <lane id=":1074577473_7_0" index="0" disallow="tram rail_urban rail rail_electric rail_fast ship" speed="8.67" length="7.04" shape="801.98,1384.72 800.19,1386.34 798.62,1387.49 797.26,1388.17 796.12,1388.38"/>
    </edge>
    <edge id=":1074577474_0" function="internal">
        <lane id=":1074577474_0_0" index="0" disallow="tram rail_urban rail rail_electric rail_fast ship" speed="13.89" length="25.89" shape="810.05,1327.94 812.24,1335.40 813.19,1341.06 815.21,1345.81 820.64,1350.55"/>
    </edge>
    <edge id=":1074577474_1" function="internal">
        <lane id=":1074577474_1_0" index="0" disallow="tram rail_urban rail rail_electric rail_fast ship" speed="13.89" length="28.01" shape="810.05,1327.94 812.01,1336.11 812.17,1342.54 813.48,1348.00 818.92,1353.25"/>
    </edge>
    <edge id=":1074577474_2" function="internal">
        <lane id=":1074577474_2_0" index="0" disallow="tram rail_urban rail rail_electric rail_fast ship" speed="13.89" length="28.66" shape="810.05,1327.94 820.72,1354.98"/>
        <lane id=":1074577474_2_1" index="1" disallow="tram rail_urban rail rail_electric rail_fast ship" speed="13.89" length="28.66" shape="807.09,1329.16 817.71,1356.07"/>
        <lane id=":1074577474_2_2" index="2" disallow="tram rail_urban rail rail_electric rail_fast ship" speed="13.89" length="28.66" shape="804.14,1330.38 814.68,1357.07"/>
        <lane id=":1074577474_2_3" index="3" disallow="tram rail_urban rail rail_electric rail_fast ship" speed="13.89" length="28.66" shape="801.18,1331.61 811.60,1357.98"/>
        <lane id=":1074577474_2_4" index="4" disallow="tram rail_urban rail rail_electric rail_fast ship" speed="13.89" length="28.66" shape="798.22,1332.83 808.60,1359.08"/>
    </edge>
    <edge id=":1074577474_7" function="internal">
        <lane id=":1074577474_7_0" index="0" disallow="tram rail_urban rail rail_electric rail_fast ship" speed="13.89" length="28.22" shape="797.21,1336.45 804.39,1339.89 807.86,1344.67 811.01,1350.22 817.20,1355.95"/>
        <lane id=":1074577474_7_1" index="1" disallow="tram rail_urban rail rail_electric rail_fast ship" speed="13.89" length="28.22" shape="796.42,1339.55 803.32,1342.91 806.59,1347.63 809.54,1353.07 815.48,1358.65"/>
    </edge>
    <edge id=":1074577474_9" function="internal">
        <lane id=":1074577474_9_0" index="0" disallow="tram rail_urban rail rail_electric rail_fast ship" speed="13.89" length="26.73" shape="795.63,1342.65 804.24,1345.32 810.79,1348.45 815.28,1352.03 817.71,1356.07"/>
    </edge>
    <edge id=":1074577474_10" function="internal">
        <lane id=":1074577474_10_0" index="0" disallow="tram rail_urban rail rail_electric rail_fast ship" speed="13.38" length="23.55" shape="794.85,1345.75 802.67,1348.13 808.59,1350.81 812.59,1353.79 814.68,1357.07"/>
    </edge>
    <edge id=":1074577474_11" function="internal">
        <lane id=":1074577474_11_0" index="0" disallow="tram rail_urban rail rail_electric rail_fast ship" speed="12.45" length="20.31" shape="794.06,1348.86 801.10,1350.93 806.38,1353.15 809.88,1355.50 811.60,1357.98"/>
    </edge>
    <edge id=":1074577474_12" function="internal">
        <lane id=":1074577474_12_0" index="0" disallow="tram rail_urban rail rail_electric rail_fast ship" speed="11.50" length="17.25" shape="793.27,1351.96 799.54,1353.75 804.18,1355.53 807.20,1357.31 808.60,1359.08"/>
    </edge>
    <edge id=":1131010230_0" function="internal">
        <lane id=":1131010230_0_0" index="0" allow="pedestrian delivery bicycle" speed="5.56" length="5.40" shape="770.20,1317.73 764.93,1318.95"/>
    </edge>
    <edge id=":1278838929_0" function="internal">
        <lane id=":1278838929_0_0" index="0" disallow="tram rail_urban rail rail_electric rail_fast ship" speed="13.89" length="12.13" shape="764.83,1425.54 764.06,1422.20 764.13,1419.64 763.89,1417.30 762.13,1414.59"/>
        <lane id=":1278838929_0_1" index="1" disallow="tram rail_urban rail rail_electric rail_fast ship" speed="13.89" length="12.13" shape="767.80,1424.33 766.89,1420.68 766.85,1417.90 766.45,1415.35 764.46,1412.39"/>
    </edge>
    <edge id=":1278838929_2" function="internal">
        <lane id=":1278838929_2_0" index="0" disallow="tram rail_urban rail rail_electric rail_fast ship" speed="9.72" length="12.56" shape="775.42,1417.64 772.20,1417.25 769.64,1416.50 767.23,1415.02 764.46,1412.39"/>
    </edge>
    <edge id=":1278838977_0" function="internal">
        <lane id=":1278838977_0_0" index="0" disallow="tram rail_urban rail rail_electric rail_fast ship" speed="13.89" length="5.83" shape="794.90,1296.09 796.37,1301.42"/>
        <lane id=":1278838977_0_1" index="1" disallow="tram rail_urban rail rail_electric rail_fast ship" speed="13.89" length="5.83" shape="791.78,1296.80 793.30,1302.33"/>
        <lane id=":1278838977_0_2" index="2" disallow="tram rail_urban rail rail_electric rail_fast ship" speed="13.89" length="5.83" shape="788.66,1297.51 790.23,1303.24"/>
        <lane id=":1278838977_0_3" index="3" disallow="tram rail_urban rail rail_electric rail_fast ship" speed="13.89" length="5.83" shape="785.54,1298.22 787.16,1304.14"/>
    </edge>
    <edge id=":1278838984_0" function="internal">
        <lane id=":1278838984_0_0" index="0" disallow="tram rail_urban rail rail_electric rail_fast ship" speed="13.89" length="12.73" shape="761.32,1413.73 758.54,1411.01 756.52,1409.23 754.71,1407.30 752.55,1404.11"/>
        <lane id=":1278838984_0_1" index="1" disallow="tram rail_urban rail rail_electric rail_fast ship" speed="13.89" length="12.73" shape="763.65,1411.53 761.01,1408.96 759.08,1407.29 757.35,1405.48 755.29,1402.46"/>
    </edge>
    <edge id=":1278838984_2" function="internal">
        <lane id=":1278838984_2_0" index="0" disallow="tram rail_urban rail rail_electric rail_fast ship" speed="9.72" length="12.18" shape="765.52,1408.40 762.45,1407.27 759.86,1406.52 757.55,1405.22 755.29,1402.46"/>
    </edge>
    <edge id=":1278839007_0" function="internal">
        <lane id=":1278839007_0_0" index="0" allow="pedestrian delivery bicycle" speed="9.72" length="9.75" shape="797.51,1414.86 796.03,1413.58 794.05,1412.62 791.56,1411.95 788.57,1411.59"/>
    </edge>
    <edge id=":1278839007_1" function="internal">
        <lane id=":1278839007_1_0" index="0" disallow="tram rail_urban rail rail_electric rail_fast ship" speed="13.89" length="10.43" shape="797.51,1414.86 795.49,1412.64 793.99,1411.24 792.41,1409.91 790.17,1407.90"/>
        <lane id=":1278839007_1_1" index="1" disallow="tram rail_urban rail rail_electric rail_fast ship" speed="13.89" length="10.43" shape="799.90,1412.73 797.82,1410.45 796.28,1409.00 794.66,1407.63 792.36,1405.56"/>
        <lane id=":1278839007_1_2" index="2" disallow="tram rail_urban rail rail_electric rail_fast ship" speed="13.89" length="10.43" shape="802.33,1410.64 800.18,1408.28 798.59,1406.79 796.92,1405.37 794.55,1403.23"/>
    </edge>
    <edge id=":1278839010_0" function="internal">
        <lane id=":1278839010_0_0" index="0" disallow="tram rail_urban rail rail_electric rail_fast ship" speed="13.89" length="9.40" shape="859.54,1373.10 861.73,1374.02 863.38,1374.21 865.10,1374.23 867.50,1374.61"/>
        <lane id=":1278839010_0_1" index="1" disallow="tram rail_urban rail rail_electric rail_fast ship" speed="13.89" length="9.40" shape="858.00,1375.91 860.41,1376.94 862.21,1377.21 864.09,1377.28 866.73,1377.71"/>
        <lane id=":1278839010_0_2" index="2" disallow="tram rail_urban rail rail_electric rail_fast ship" speed="13.89" length="9.40" shape="856.47,1378.72 859.09,1379.86 861.04,1380.20 863.08,1380.32 865.96,1380.82"/>
        <lane id=":1278839010_0_3" index="3" disallow="tram rail_urban rail rail_electric rail_fast ship" speed="13.89" length="9.40" shape="854.94,1381.52 857.77,1382.78 859.88,1383.19 862.08,1383.37 865.19,1383.93"/>
    </edge>
    <edge id=":1278839022_0" function="internal">
        <lane id=":1278839022_0_0" index="0" disallow="tram rail_urban rail rail_electric rail_fast ship" speed="13.89" length="0.30" shape="923.31,1687.09 923.40,1687.34"/>
        <lane id=":1278839022_0_1" index="1" disallow="tram rail_urban rail rail_electric rail_fast ship" speed="13.89" length="0.30" shape="920.30,1688.16 920.40,1688.43"/>
        <lane id=":1278839022_0_2" index="2" disallow="tram rail_urban rail rail_electric rail_fast ship" speed="13.89" length="0.30" shape="917.28,1689.23 917.39,1689.53"/>
    </edge>
    <edge id=":1278839062_0" function="internal">
        <lane id=":1278839062_0_0" index="0" disallow="tram rail_urban rail rail_electric rail_fast ship" speed="13.89" length="0.28" shape="908.23,1693.20 908.16,1693.00"/>
        <lane id=":1278839062_0_1" index="1" disallow="tram rail_urban rail rail_electric rail_fast ship" speed="13.89" length="0.28" shape="911.27,1692.18 911.18,1691.92"/>
        <lane id=":1278839062_0_2" index="2" disallow="tram rail_urban rail rail_electric rail_fast ship" speed="13.89" length="0.28" shape="914.30,1691.17 914.19,1690.85"/>
    </edge>
    <edge id=":1278839077_0" function="internal">
        <lane id=":1278839077_0_0" index="0" disallow="tram rail_urban rail rail_electric rail_fast ship" speed="13.89" length="0.28" shape="844.39,1645.91 844.22,1645.49"/>
        <lane id=":1278839077_0_1" index="1" disallow="tram rail_urban rail rail_electric rail_fast ship" speed="13.89" length="0.28" shape="847.33,1644.67 847.24,1644.41"/>
        <lane id=":1278839077_0_2" index="2" disallow="tram rail_urban rail rail_electric rail_fast ship" speed="13.89" length="0.28" shape="850.28,1643.42 850.25,1643.34"/>
    </edge>
    <edge id=":1278839095_0" function="internal">
        <lane id=":1278839095_0_0" index="0" disallow="tram rail_urban rail rail_electric rail_fast ship" speed="13.89" length="0.53" shape="826.85,1387.01 826.89,1387.23"/>
        <lane id=":1278839095_0_1" index="1" disallow="tram rail_urban rail rail_electric rail_fast ship" speed="13.89" length="0.53" shape="823.70,1387.60 823.78,1387.97"/>
        <lane id=":1278839095_0_2" index="2" disallow="tram rail_urban rail rail_electric rail_fast ship" speed="13.89" length="0.53" shape="820.56,1388.19 820.66,1388.71"/>
        <lane id=":1278839095_0_3" index="3" disallow="tram rail_urban rail rail_electric rail_fast ship" speed="13.89" length="0.53" shape="817.42,1388.79 817.55,1389.45"/>
        <lane id=":1278839095_0_4" index="4" disallow="tram rail_urban rail rail_electric rail_fast ship" speed="13.89" length="0.53" shape="814.27,1389.38 814.44,1390.20"/>
    </edge>
    <edge id=":1278839106_0" function="internal">
        <lane id=":1278839106_0_0" index="0" disallow="tram rail_urban rail rail_electric rail_fast ship" speed="13.89" length="0.47" shape="748.65,1386.65 748.56,1386.61"/>
        <lane id=":1278839106_0_1" index="1" disallow="tram rail_urban rail rail_electric rail_fast ship" speed="13.89" length="0.47" shape="750.04,1383.77 749.78,1383.65"/>
        <lane id=":1278839106_0_2" index="2" disallow="tram rail_urban rail rail_electric rail_fast ship" speed="13.89" length="0.47" shape="751.42,1380.88 750.99,1380.69"/>
        <lane id=":1278839106_0_3" index="3" disallow="tram rail_urban rail rail_electric rail_fast ship" speed="13.89" length="0.47" shape="752.81,1378.00 752.21,1377.73"/>
        <lane id=":1278839106_0_4" index="4" disallow="tram rail_urban rail rail_electric rail_fast ship" speed="13.89" length="0.47" shape="754.19,1375.11 753.42,1374.77"/>
    </edge>
    <edge id=":1278839124_0" function="internal">
        <lane id=":1278839124_0_0" index="0" disallow="tram rail_urban rail rail_electric rail_fast ship" speed="13.89" length="4.76" shape="724.82,1321.51 723.96,1317.18"/>
        <lane id=":1278839124_0_1" index="1" disallow="tram rail_urban rail rail_electric rail_fast ship" speed="13.89" length="4.76" shape="727.98,1321.03 727.08,1316.47"/>
        <lane id=":1278839124_0_2" index="2" disallow="tram rail_urban rail rail_electric rail_fast ship" speed="13.89" length="4.76" shape="731.14,1320.55 730.20,1315.77"/>
        <lane id=":1278839124_0_3" index="3" disallow="tram rail_urban rail rail_electric rail_fast ship" speed="13.89" length="4.76" shape="734.31,1320.07 733.32,1315.06"/>
    </edge>
    <edge id=":2088535030_0" function="internal">
        <lane id=":2088535030_0_0" index="0" disallow="tram rail_urban rail rail_electric rail_fast ship" speed="13.89" length="15.86" shape="733.38,1357.78 732.69,1353.04 732.32,1349.77 732.22,1346.48 732.35,1341.69"/>
        <lane id=":2088535030_0_1" index="1" disallow="tram rail_urban rail rail_electric rail_fast ship" speed="13.89" length="15.86" shape="736.54,1357.33 735.88,1352.76 735.52,1349.61 735.42,1346.45 735.54,1341.84"/>
    </edge>
    <edge id=":2088535030_2" function="internal">
        <lane id=":2088535030_2_0" index="0" disallow="tram rail_urban rail rail_electric rail_fast ship" speed="6.02" length="8.22" shape="736.54,1357.33 736.14,1353.89 736.07,1351.42 736.33,1349.93 736.92,1349.42"/>
    </edge>
    <edge id=":2088535030_3" function="internal">
        <lane id=":2088535030_3_0" index="0" disallow="tram rail_urban rail rail_electric rail_fast ship" speed="4.87" length="5.00" shape="736.54,1357.33 736.32,1355.28 736.33,1353.82 736.56,1352.93 737.02,1352.62"/>
    </edge>
    <edge id=":2088535030_4" function="internal">
        <lane id=":2088535030_4_0" index="0" disallow="tram rail_urban rail rail_electric rail_fast ship" speed="6.11" length="5.98" shape="727.44,1344.65 729.56,1343.96 731.09,1343.24 732.02,1342.48 732.35,1341.69"/>
    </edge>
    <edge id=":2088535030_5" function="internal">
        <lane id=":2088535030_5_0" index="0" disallow="tram rail_urban rail rail_electric rail_fast ship" speed="13.89" length="8.31" shape="727.44,1344.65 730.14,1343.89 732.02,1343.42 733.92,1343.16 736.72,1343.03"/>
        <lane id=":2088535030_5_1" index="1" disallow="tram rail_urban rail rail_electric rail_fast ship" speed="13.89" length="8.31" shape="728.30,1347.74 730.78,1347.03 732.50,1346.60 734.25,1346.35 736.82,1346.22"/>
        <lane id=":2088535030_5_2" index="2" disallow="tram rail_urban rail rail_electric rail_fast ship" speed="13.89" length="8.31" shape="729.16,1350.82 731.42,1350.17 732.99,1349.77 734.58,1349.54 736.92,1349.42"/>
        <lane id=":2088535030_5_3" index="3" disallow="tram rail_urban rail rail_electric rail_fast ship" speed="13.89" length="8.31" shape="730.02,1353.90 732.06,1353.31 733.47,1352.94 734.91,1352.73 737.02,1352.62"/>
    </edge>
    <edge id=":20953235_0" function="internal">
        <lane id=":20953235_0_0" index="0" disallow="tram rail_urban rail rail_electric rail_fast ship" speed="13.89" length="4.45" shape="706.29,1346.58 707.48,1346.67 708.30,1346.73 709.12,1346.75 710.31,1346.74"/>
        <lane id=":20953235_0_1" index="1" disallow="tram rail_urban rail rail_electric rail_fast ship" speed="13.89" length="4.45" shape="706.09,1349.78 707.37,1349.87 708.24,1349.93 709.11,1349.95 710.39,1349.94"/>
        <lane id=":20953235_0_2" index="2" disallow="tram rail_urban rail rail_electric rail_fast ship" speed="13.89" length="4.45" shape="705.89,1352.97 707.25,1353.07 708.18,1353.13 709.11,1353.16 710.47,1353.14"/>
        <lane id=":20953235_0_3" index="3" disallow="tram rail_urban rail rail_electric rail_fast ship" speed="13.89" length="4.45" shape="705.69,1356.16 707.13,1356.26 708.12,1356.33 709.10,1356.36 710.55,1356.34"/>
    </edge>
    <edge id=":21970158_0" function="internal">
        <lane id=":21970158_0_0" index="0" disallow="tram rail_urban rail rail_electric rail_fast ship" speed="13.89" length="5.84" shape="708.57,1371.10 702.97,1369.80"/>
        <lane id=":21970158_0_1" index="1" disallow="tram rail_urban rail rail_electric rail_fast ship" speed="13.89" length="5.84" shape="709.32,1367.99 703.66,1366.67"/>
        <lane id=":21970158_0_2" index="2" disallow="tram rail_urban rail rail_electric rail_fast ship" speed="13.89" length="5.84" shape="710.07,1364.88 704.36,1363.55"/>
        <lane id=":21970158_0_3" index="3" disallow="tram rail_urban rail rail_electric rail_fast ship" speed="13.89" length="5.84" shape="710.83,1361.77 705.06,1360.43"/>
    </edge>
    <edge id=":2480979093_0" function="internal">
        <lane id=":2480979093_0_0" index="0" disallow="tram rail_urban rail rail_electric rail_fast ship" speed="13.89" length="6.62" shape="802.25,1311.22 805.09,1317.21"/>
        <lane id=":2480979093_0_1" index="1" disallow="tram rail_urban rail rail_electric rail_fast ship" speed="13.89" length="6.62" shape="799.36,1312.59 802.20,1318.58"/>
        <lane id=":2480979093_0_2" index="2" disallow="tram rail_urban rail rail_electric rail_fast ship" speed="13.89" length="6.62" shape="796.47,1313.96 799.31,1319.95"/>
        <lane id=":2480979093_0_3" index="3" disallow="tram rail_urban rail rail_electric rail_fast ship" speed="13.89" length="6.62" shape="793.58,1315.33 796.42,1321.32"/>
        <lane id=":2480979093_0_4" index="4" disallow="tram rail_urban rail rail_electric rail_fast ship" speed="13.89" length="6.62" shape="790.69,1316.71 793.53,1322.69"/>
    </edge>
    <edge id=":2480979093_5" function="internal">
        <lane id=":2480979093_5_0" index="0" disallow="tram rail_urban rail rail_electric rail_fast ship" speed="9.01" length="11.48" shape="787.88,1320.26 790.03,1320.10 793.81,1319.78 797.49,1319.62 799.31,1319.95"/>
    </edge>
    <edge id=":2480979093_6" function="internal">
        <lane id=":2480979093_6_0" index="0" disallow="tram rail_urban rail rail_electric rail_fast ship" speed="7.90" length="8.67" shape="787.88,1320.26 789.58,1320.32 792.36,1320.47 795.05,1320.78 796.42,1321.32"/>
    </edge>
    <edge id=":2480979093_7" function="internal">