<routes>
    <vType accel="1.0" decel="5.0" id="Car" length="2.0" maxSpeed="100.0" sigma="0.0" />
    <vType accel="1.0" decel="5.0" id="Bus" length="12.0" maxSpeed="80.0" sigma="0.0" />
    <route id="route0" edges="3to1 1to4"/>
    <vehicle depart="10" id="veh0" route="route0" type="Bus" />
    <route id="route1" edges="2to1 1to5"/>
    <vehicle depart="10" id="veh1" route="route1" type="Car" />
    <route id="route2" edges="2to1 1to4"/>
    <vehicle depart="30" id="veh2" route="route2" type="Car" />
    <vehicle depart="20" id="veh3" route="route0" type="Car" />
</routes>