<?xml version="1.0" encoding="UTF-8"?>

<!-- generated on 09/22/19 22:11:17 by Eclipse SUMO netconvert Version 1.3.1
<configuration xmlns:xsi="http://www.w3.org/2001/XMLSchema-instance" xsi:noNamespaceSchemaLocation="http://sumo.dlr.de/xsd/netconvertConfiguration.xsd">

    <input>
        <node-files value="my_nodes.nod.xml"/>
        <edge-files value="my_edges.edg.xml"/>
        <type-files value="my_types.type.xml"/>
    </input>

    <output>
        <output-file value="my_net.net.xml"/>
    </output>

</configuration>
-->

<net version="1.3" junctionCornerDetail="5" limitTurnSpeed="5.50" xmlns:xsi="http://www.w3.org/2001/XMLSchema-instance" xsi:noNamespaceSchemaLocation="http://sumo.dlr.de/xsd/net_file.xsd">

    <location netOffset="500.00,500.00" convBoundary="0.00,0.00,1000.00,1000.00" origBoundary="-500.00,-500.00,500.00,500.00" projParameter="!"/>

    <type id="2L15" priority="3" numLanes="2" speed="15.00"/>
    <type id="3L30" priority="2" numLanes="3" speed="30.00"/>
    <type id="3L45" priority="3" numLanes="3" speed="45.00"/>

    <edge id=":n1_0" function="internal">
        <lane id=":n1_0_0" index="0" speed="6.51" length="9.03" shape="495.20,510.40 494.85,507.95 493.80,506.20 492.05,505.15 489.60,504.80"/>
    </edge>
    <edge id=":n1_1" function="internal">
        <lane id=":n1_1_0" index="0" speed="15.00" length="20.80" shape="495.20,510.40 495.20,489.60"/>
        <lane id=":n1_1_1" index="1" speed="15.00" length="20.80" shape="498.40,510.40 498.40,489.60"/>
    </edge>
    <edge id=":n1_3" function="internal">
        <lane id=":n1_3_0" index="0" speed="9.26" length="6.96" shape="498.40,510.40 499.15,505.15 500.00,503.73"/>
    </edge>
    <edge id=":n1_4" function="internal">
        <lane id=":n1_4_0" index="0" speed="3.65" length="2.34" shape="498.40,510.40 499.20,509.20 500.00,508.80"/>
    </edge>
    <edge id=":n1_20" function="internal">
        <lane id=":n1_20_0" index="0" speed="9.26" length="12.40" shape="500.00,503.73 501.40,501.40 505.15,499.15 510.40,498.40"/>
    </edge>
    <edge id=":n1_21" function="internal">
        <lane id=":n1_21_0" index="0" speed="3.65" length="2.34" shape="500.00,508.80 500.80,509.20 501.60,510.40"/>
    </edge>
    <edge id=":n1_5" function="internal">
        <lane id=":n1_5_0" index="0" speed="6.51" length="9.03" shape="510.40,504.80 507.95,505.15 506.20,506.20 505.15,507.95 504.80,510.40"/>
    </edge>
    <edge id=":n1_6" function="internal">
        <lane id=":n1_6_0" index="0" speed="15.00" length="20.80" shape="510.40,504.80 489.60,504.80"/>
        <lane id=":n1_6_1" index="1" speed="15.00" length="20.80" shape="510.40,501.60 489.60,501.60"/>
    </edge>
    <edge id=":n1_8" function="internal">
        <lane id=":n1_8_0" index="0" speed="9.26" length="6.96" shape="510.40,501.60 505.15,500.85 503.73,500.00"/>
    </edge>
    <edge id=":n1_9" function="internal">
        <lane id=":n1_9_0" index="0" speed="3.65" length="2.34" shape="510.40,501.60 509.20,500.80 508.80,500.00"/>
    </edge>
    <edge id=":n1_22" function="internal">
        <lane id=":n1_22_0" index="0" speed="9.26" length="12.40" shape="503.73,500.00 501.40,498.60 499.15,494.85 498.40,489.60"/>
    </edge>
    <edge id=":n1_23" function="internal">
        <lane id=":n1_23_0" index="0" speed="3.65" length="2.34" shape="508.80,500.00 509.20,499.20 510.40,498.40"/>
    </edge>
    <edge id=":n1_10" function="internal">
        <lane id=":n1_10_0" index="0" speed="6.51" length="9.03" shape="504.80,489.60 505.15,492.05 506.20,493.80 507.95,494.85 510.40,495.20"/>
    </edge>
    <edge id=":n1_11" function="internal">
        <lane id=":n1_11_0" index="0" speed="15.00" length="20.80" shape="504.80,489.60 504.80,510.40"/>
        <lane id=":n1_11_1" index="1" speed="15.00" length="20.80" shape="501.60,489.60 501.60,510.40"/>
    </edge>
    <edge id=":n1_13" function="internal">
        <lane id=":n1_13_0" index="0" speed="9.26" length="6.96" shape="501.60,489.60 500.85,494.85 500.00,496.27"/>
    </edge>
    <edge id=":n1_14" function="internal">
        <lane id=":n1_14_0" index="0" speed="3.65" length="2.34" shape="501.60,489.60 500.80,490.80 500.00,491.20"/>
    </edge>
    <edge id=":n1_24" function="internal">
        <lane id=":n1_24_0" index="0" speed="9.26" length="12.40" shape="500.00,496.27 498.60,498.60 494.85,500.85 489.60,501.60"/>
    </edge>
    <edge id=":n1_25" function="internal">
        <lane id=":n1_25_0" index="0" speed="3.65" length="2.34" shape="500.00,491.20 499.20,490.80 498.40,489.60"/>
    </edge>
    <edge id=":n1_15" function="internal">
        <lane id=":n1_15_0" index="0" speed="6.51" length="9.03" shape="489.60,495.20 492.05,494.85 493.80,493.80 494.85,492.05 495.20,489.60"/>
    </edge>
    <edge id=":n1_16" function="internal">
        <lane id=":n1_16_0" index="0" speed="15.00" length="20.80" shape="489.60,495.20 510.40,495.20"/>
        <lane id=":n1_16_1" index="1" speed="15.00" length="20.80" shape="489.60,498.40 510.40,498.40"/>
    </edge>
    <edge id=":n1_18" function="internal">
        <lane id=":n1_18_0" index="0" speed="9.26" length="6.96" shape="489.60,498.40 494.85,499.15 496.27,500.00"/>
    </edge>
    <edge id=":n1_19" function="internal">
        <lane id=":n1_19_0" index="0" speed="3.65" length="2.34" shape="489.60,498.40 490.80,499.20 491.20,500.00"/>
    </edge>
    <edge id=":n1_26" function="internal">
        <lane id=":n1_26_0" index="0" speed="9.26" length="12.40" shape="496.27,500.00 498.60,501.40 500.85,505.15 501.60,510.40"/>
    </edge>
    <edge id=":n1_27" function="internal">
        <lane id=":n1_27_0" index="0" speed="3.65" length="2.34" shape="491.20,500.00 490.80,500.80 489.60,501.60"/>
    </edge>
    <edge id=":n2_0" function="internal">
        <lane id=":n2_0_0" index="0" speed="3.65" length="4.67" shape="1000.00,498.40 1001.20,499.20 1001.60,500.00 1001.20,500.80 1000.00,501.60"/>
    </edge>
    <edge id=":n3_0" function="internal">
        <lane id=":n3_0_0" index="0" speed="3.65" length="4.67" shape="0.00,501.60 -1.20,500.80 -1.60,500.00 -1.20,499.20 0.00,498.40"/>
    </edge>
    <edge id=":n4_0" function="internal">
        <lane id=":n4_0_0" index="0" speed="3.65" length="4.67" shape="501.60,1000.00 500.80,1001.20 500.00,1001.60 499.20,1001.20 498.40,1000.00"/>
    </edge>
    <edge id=":n5_0" function="internal">
        <lane id=":n5_0_0" index="0" speed="3.65" length="4.67" shape="498.40,0.00 499.20,-1.20 500.00,-1.60 500.80,-1.20 501.60,0.00"/>
    </edge>

    <edge id="1to2" from="n1" to="n2" priority="3" type="2L15">
        <lane id="1to2_0" index="0" speed="15.00" length="489.60" shape="510.40,495.20 1000.00,495.20"/>
        <lane id="1to2_1" index="1" speed="15.00" length="489.60" shape="510.40,498.40 1000.00,498.40"/>
    </edge>
    <edge id="1to3" from="n1" to="n3" priority="3" type="2L15">
        <lane id="1to3_0" index="0" speed="15.00" length="489.60" shape="489.60,504.80 0.00,504.80"/>
        <lane id="1to3_1" index="1" speed="15.00" length="489.60" shape="489.60,501.60 0.00,501.60"/>
    </edge>
    <edge id="1to4" from="n1" to="n4" priority="3" type="2L15">
        <lane id="1to4_0" index="0" speed="15.00" length="489.60" shape="504.80,510.40 504.80,1000.00"/>
        <lane id="1to4_1" index="1" speed="15.00" length="489.60" shape="501.60,510.40 501.60,1000.00"/>
    </edge>
    <edge id="1to5" from="n1" to="n5" priority="3" type="2L15">
        <lane id="1to5_0" index="0" speed="15.00" length="489.60" shape="495.20,489.60 495.20,0.00"/>
        <lane id="1to5_1" index="1" speed="15.00" length="489.60" shape="498.40,489.60 498.40,0.00"/>
    </edge>
    <edge id="2to1" from="n2" to="n1" priority="3" type="2L15">
        <lane id="2to1_0" index="0" speed="15.00" length="489.60" shape="1000.00,504.80 510.40,504.80"/>
        <lane id="2to1_1" index="1" speed="15.00" length="489.60" shape="1000.00,501.60 510.40,501.60"/>
    </edge>
    <edge id="3to1" from="n3" to="n1" priority="3" type="2L15">
        <lane id="3to1_0" index="0" speed="15.00" length="489.60" shape="0.00,495.20 489.60,495.20"/>
        <lane id="3to1_1" index="1" speed="15.00" length="489.60" shape="0.00,498.40 489.60,498.40"/>
    </edge>
    <edge id="4to1" from="n4" to="n1" priority="3" type="2L15">
        <lane id="4to1_0" index="0" speed="15.00" length="489.60" shape="495.20,1000.00 495.20,510.40"/>
        <lane id="4to1_1" index="1" speed="15.00" length="489.60" shape="498.40,1000.00 498.40,510.40"/>
    </edge>
    <edge id="5to1" from="n5" to="n1" priority="3" type="2L15">
        <lane id="5to1_0" index="0" speed="15.00" length="489.60" shape="504.80,0.00 504.80,489.60"/>
        <lane id="5to1_1" index="1" speed="15.00" length="489.60" shape="501.60,0.00 501.60,489.60"/>
    </edge>

    <tlLogic id="n1" type="static" programID="0" offset="0">
        <phase duration="42" state="GGGggrrrrrGGGggrrrrr"/>
        <phase duration="20"  state="yyyyyrrrrryyyyyrrrrr"/>
        <phase duration="42" state="rrrrrGGGggrrrrrGGGgg"/>
        <phase duration="20"  state="rrrrryyyyyrrrrryyyyy"/>
    </tlLogic>

    <junction id="n1" type="traffic_light" x="500.00" y="500.00" incLanes="4to1_0 4to1_1 2to1_0 2to1_1 5to1_0 5to1_1 3to1_0 3to1_1" intLanes=":n1_0_0 :n1_1_0 :n1_1_1 :n1_20_0 :n1_21_0 :n1_5_0 :n1_6_0 :n1_6_1 :n1_22_0 :n1_23_0 :n1_10_0 :n1_11_0 :n1_11_1 :n1_24_0 :n1_25_0 :n1_15_0 :n1_16_0 :n1_16_1 :n1_26_0 :n1_27_0" shape="493.60,510.40 506.40,510.40 506.84,508.18 507.40,507.40 508.18,506.84 509.18,506.51 510.40,506.40 510.40,493.60 508.18,493.16 507.40,492.60 506.84,491.82 506.51,490.82 506.40,489.60 493.60,489.60 493.16,491.82 492.60,492.60 491.82,493.16 490.82,493.49 489.60,493.60 489.60,506.40 491.82,506.84 492.60,507.40 493.16,508.18 493.49,509.18">
        <request index="0"  response="00000000000000000000" foes="00000000000011000000" cont="0"/>
        <request index="1"  response="01000000000100000000" foes="01111110000111000000" cont="0"/>
        <request index="2"  response="01000000000100000000" foes="01111110000111000000" cont="0"/>
        <request index="3"  response="01000001100100000000" foes="01110001101111000000" cont="1"/>
        <request index="4"  response="01000001100000000000" foes="01000001100000000000" cont="1"/>
        <request index="5"  response="00000001100000000000" foes="00000001100000000000" cont="0"/>
        <request index="6"  response="00000011100000001111" foes="11000011100000001111" cont="0"/>
        <request index="7"  response="00000011100000001111" foes="11000011100000001111" cont="0"/>
        <request index="8"  response="00110011100000001110" foes="00110111100000001110" cont="1"/>
        <request index="9"  response="00110000000000001000" foes="00110000000000001000" cont="1"/>
        <request index="10" response="00000000000000000000" foes="00110000000000000000" cont="0"/>
        <request index="11" response="01000000000100000000" foes="01110000000111111000" cont="0"/>
        <request index="12" response="01000000000100000000" foes="01110000000111111000" cont="0"/>
        <request index="13" response="01000000000100000110" foes="11110000000111000110" cont="1"/>
        <request index="14" response="00000000000100000110" foes="00000000000100000110" cont="1"/>
        <request index="15" response="00000000000000000110" foes="00000000000000000110" cont="0"/>
        <request index="16" response="00000011110000001110" foes="00000011111100001110" cont="0"/>
        <request index="17" response="00000011110000001110" foes="00000011111100001110" cont="0"/>
        <request index="18" response="00000011100011001110" foes="00000011100011011110" cont="1"/>
        <request index="19" response="00000010000011000000" foes="00000010000011000000" cont="1"/>
    </junction>
    <junction id="n2" type="priority" x="1000.00" y="500.00" incLanes="1to2_0 1to2_1" intLanes=":n2_0_0" shape="1000.00,500.00 1000.00,493.60 1000.00,500.00">
        <request index="0" response="0" foes="0" cont="0"/>
    </junction>
    <junction id="n3" type="priority" x="0.00" y="500.00" incLanes="1to3_0 1to3_1" intLanes=":n3_0_0" shape="0.00,500.00 0.00,506.40 0.00,500.00">
        <request index="0" response="0" foes="0" cont="0"/>
    </junction>
    <junction id="n4" type="priority" x="500.00" y="1000.00" incLanes="1to4_0 1to4_1" intLanes=":n4_0_0" shape="500.00,1000.00 506.40,1000.00 500.00,1000.00">
        <request index="0" response="0" foes="0" cont="0"/>
    </junction>
    <junction id="n5" type="priority" x="500.00" y="0.00" incLanes="1to5_0 1to5_1" intLanes=":n5_0_0" shape="500.00,0.00 493.60,0.00 500.00,0.00">
        <request index="0" response="0" foes="0" cont="0"/>
    </junction>

    <junction id=":n1_20_0" type="internal" x="500.00" y="503.73" incLanes=":n1_3_0 5to1_0 5to1_1" intLanes=":n1_6_0 :n1_6_1 :n1_8_0 :n1_9_0 :n1_10_0 :n1_11_0 :n1_11_1 :n1_16_0 :n1_16_1 :n1_18_0"/>
    <junction id=":n1_21_0" type="internal" x="500.00" y="508.80" incLanes=":n1_4_0 2to1_0 3to1_1 5to1_0 5to1_1" intLanes=":n1_5_0 :n1_11_0 :n1_11_1 :n1_18_0"/>
    <junction id=":n1_22_0" type="internal" x="503.73" y="500.00" incLanes=":n1_8_0 3to1_0 3to1_1" intLanes=":n1_1_0 :n1_1_1 :n1_3_0 :n1_11_0 :n1_11_1 :n1_13_0 :n1_14_0 :n1_15_0 :n1_16_0 :n1_16_1"/>
    <junction id=":n1_23_0" type="internal" x="508.80" y="500.00" incLanes=":n1_9_0 3to1_0 3to1_1 4to1_1 5to1_0" intLanes=":n1_3_0 :n1_10_0 :n1_16_0 :n1_16_1"/>
    <junction id=":n1_24_0" type="internal" x="500.00" y="496.27" incLanes=":n1_13_0 4to1_0 4to1_1" intLanes=":n1_0_0 :n1_1_0 :n1_1_1 :n1_6_0 :n1_6_1 :n1_8_0 :n1_16_0 :n1_16_1 :n1_18_0 :n1_19_0"/>
    <junction id=":n1_25_0" type="internal" x="500.00" y="491.20" incLanes=":n1_14_0 2to1_1 3to1_0 4to1_0 4to1_1" intLanes=":n1_1_0 :n1_1_1 :n1_8_0 :n1_15_0"/>
    <junction id=":n1_26_0" type="internal" x="496.27" y="500.00" incLanes=":n1_18_0 2to1_0 2to1_1" intLanes=":n1_1_0 :n1_1_1 :n1_3_0 :n1_4_0 :n1_5_0 :n1_6_0 :n1_6_1 :n1_11_0 :n1_11_1 :n1_13_0"/>
    <junction id=":n1_27_0" type="internal" x="491.20" y="500.00" incLanes=":n1_19_0 2to1_0 2to1_1 4to1_0 5to1_1" intLanes=":n1_0_0 :n1_6_0 :n1_6_1 :n1_13_0"/>

    <connection from="1to2" to="2to1" fromLane="1" toLane="1" via=":n2_0_0" dir="t" state="M"/>
    <connection from="1to3" to="3to1" fromLane="1" toLane="1" via=":n3_0_0" dir="t" state="M"/>
    <connection from="1to4" to="4to1" fromLane="1" toLane="1" via=":n4_0_0" dir="t" state="M"/>
    <connection from="1to5" to="5to1" fromLane="1" toLane="1" via=":n5_0_0" dir="t" state="M"/>
    <connection from="2to1" to="1to4" fromLane="0" toLane="0" via=":n1_5_0" tl="n1" linkIndex="5" dir="r" state="o"/>
    <connection from="2to1" to="1to3" fromLane="0" toLane="0" via=":n1_6_0" tl="n1" linkIndex="6" dir="s" state="o"/>
    <connection from="2to1" to="1to3" fromLane="1" toLane="1" via=":n1_6_1" tl="n1" linkIndex="7" dir="s" state="o"/>
    <connection from="2to1" to="1to5" fromLane="1" toLane="1" via=":n1_8_0" tl="n1" linkIndex="8" dir="l" state="o"/>
    <connection from="2to1" to="1to2" fromLane="1" toLane="1" via=":n1_9_0" tl="n1" linkIndex="9" dir="t" state="o"/>
    <connection from="3to1" to="1to5" fromLane="0" toLane="0" via=":n1_15_0" tl="n1" linkIndex="15" dir="r" state="o"/>
    <connection from="3to1" to="1to2" fromLane="0" toLane="0" via=":n1_16_0" tl="n1" linkIndex="16" dir="s" state="o"/>
    <connection from="3to1" to="1to2" fromLane="1" toLane="1" via=":n1_16_1" tl="n1" linkIndex="17" dir="s" state="o"/>
    <connection from="3to1" to="1to4" fromLane="1" toLane="1" via=":n1_18_0" tl="n1" linkIndex="18" dir="l" state="o"/>
    <connection from="3to1" to="1to3" fromLane="1" toLane="1" via=":n1_19_0" tl="n1" linkIndex="19" dir="t" state="o"/>
    <connection from="4to1" to="1to3" fromLane="0" toLane="0" via=":n1_0_0" tl="n1" linkIndex="0" dir="r" state="O"/>
    <connection from="4to1" to="1to5" fromLane="0" toLane="0" via=":n1_1_0" tl="n1" linkIndex="1" dir="s" state="O"/>
    <connection from="4to1" to="1to5" fromLane="1" toLane="1" via=":n1_1_1" tl="n1" linkIndex="2" dir="s" state="O"/>
    <connection from="4to1" to="1to2" fromLane="1" toLane="1" via=":n1_3_0" tl="n1" linkIndex="3" dir="l" state="o"/>
    <connection from="4to1" to="1to4" fromLane="1" toLane="1" via=":n1_4_0" tl="n1" linkIndex="4" dir="t" state="o"/>
    <connection from="5to1" to="1to2" fromLane="0" toLane="0" via=":n1_10_0" tl="n1" linkIndex="10" dir="r" state="O"/>
    <connection from="5to1" to="1to4" fromLane="0" toLane="0" via=":n1_11_0" tl="n1" linkIndex="11" dir="s" state="O"/>
    <connection from="5to1" to="1to4" fromLane="1" toLane="1" via=":n1_11_1" tl="n1" linkIndex="12" dir="s" state="O"/>
    <connection from="5to1" to="1to3" fromLane="1" toLane="1" via=":n1_13_0" tl="n1" linkIndex="13" dir="l" state="o"/>
    <connection from="5to1" to="1to5" fromLane="1" toLane="1" via=":n1_14_0" tl="n1" linkIndex="14" dir="t" state="o"/>

    <connection from=":n1_0" to="1to3" fromLane="0" toLane="0" dir="r" state="M"/>
    <connection from=":n1_1" to="1to5" fromLane="0" toLane="0" dir="s" state="M"/>
    <connection from=":n1_1" to="1to5" fromLane="1" toLane="1" dir="s" state="M"/>
    <connection from=":n1_3" to="1to2" fromLane="0" toLane="1" via=":n1_20_0" dir="l" state="m"/>
    <connection from=":n1_20" to="1to2" fromLane="0" toLane="1" dir="l" state="M"/>
    <connection from=":n1_4" to="1to4" fromLane="0" toLane="1" via=":n1_21_0" dir="t" state="m"/>
    <connection from=":n1_21" to="1to4" fromLane="0" toLane="1" dir="t" state="M"/>
    <connection from=":n1_5" to="1to4" fromLane="0" toLane="0" dir="r" state="M"/>
    <connection from=":n1_6" to="1to3" fromLane="0" toLane="0" dir="s" state="M"/>
    <connection from=":n1_6" to="1to3" fromLane="1" toLane="1" dir="s" state="M"/>
    <connection from=":n1_8" to="1to5" fromLane="0" toLane="1" via=":n1_22_0" dir="l" state="m"/>
    <connection from=":n1_22" to="1to5" fromLane="0" toLane="1" dir="l" state="M"/>
    <connection from=":n1_9" to="1to2" fromLane="0" toLane="1" via=":n1_23_0" dir="t" state="m"/>
    <connection from=":n1_23" to="1to2" fromLane="0" toLane="1" dir="t" state="M"/>
    <connection from=":n1_10" to="1to2" fromLane="0" toLane="0" dir="r" state="M"/>
    <connection from=":n1_11" to="1to4" fromLane="0" toLane="0" dir="s" state="M"/>
    <connection from=":n1_11" to="1to4" fromLane="1" toLane="1" dir="s" state="M"/>
    <connection from=":n1_13" to="1to3" fromLane="0" toLane="1" via=":n1_24_0" dir="l" state="m"/>
    <connection from=":n1_24" to="1to3" fromLane="0" toLane="1" dir="l" state="M"/>
    <connection from=":n1_14" to="1to5" fromLane="0" toLane="1" via=":n1_25_0" dir="t" state="m"/>
    <connection from=":n1_25" to="1to5" fromLane="0" toLane="1" dir="t" state="M"/>
    <connection from=":n1_15" to="1to5" fromLane="0" toLane="0" dir="r" state="M"/>
    <connection from=":n1_16" to="1to2" fromLane="0" toLane="0" dir="s" state="M"/>
    <connection from=":n1_16" to="1to2" fromLane="1" toLane="1" dir="s" state="M"/>
    <connection from=":n1_18" to="1to4" fromLane="0" toLane="1" via=":n1_26_0" dir="l" state="m"/>
    <connection from=":n1_26" to="1to4" fromLane="0" toLane="1" dir="l" state="M"/>
    <connection from=":n1_19" to="1to3" fromLane="0" toLane="1" via=":n1_27_0" dir="t" state="m"/>
    <connection from=":n1_27" to="1to3" fromLane="0" toLane="1" dir="t" state="M"/>
    <connection from=":n2_0" to="2to1" fromLane="0" toLane="1" dir="t" state="M"/>
    <connection from=":n3_0" to="3to1" fromLane="0" toLane="1" dir="t" state="M"/>
    <connection from=":n4_0" to="4to1" fromLane="0" toLane="1" dir="t" state="M"/>
    <connection from=":n5_0" to="5to1" fromLane="0" toLane="1" dir="t" state="M"/>

</net>
